! This input file provides the adjustable run-time parameters for version 6 of the Modular Ocean Model (MOM6).
! Where appropriate, parameters use usually given in MKS units.

! This particular file is for the example in double_gyre.

! This MOM_input file typically contains only the non-default values that are needed to reproduce this example.
! A full list of parameters for this example can be found in the corresponding MOM_parameter_doc.all file
! which is generated by the model at run-time.

! === module MOM_domains ===
REENTRANT_X = True              !   [Boolean] default = True
                                ! If true, the domain is zonally reentrant.

USE_REGRIDDING = True           !   [Boolean] default = False
                                ! If True, use the ALE algorithm (regridding/remapping). If False, use the

NIGLOBAL = 80                   !
                                ! The total number of thickness grid points in the x-direction in the physical
                                ! domain. With STATIC_MEMORY_ this is set in MOM_memory.h at compile time.
NJGLOBAL = 140                  !
                                ! The total number of thickness grid points in the y-direction in the physical
                                ! domain. With STATIC_MEMORY_ this is set in MOM_memory.h at compile time.
! LAYOUT = 2, 4                 !
                                ! The processor layout that was actually used.

! === module MOM ===
ADIABATIC = FALSE                !   [Boolean] default = False
                                ! There are no diapycnal mass fluxes if ADIABATIC is true. This assumes that KD
                                ! = KDML = 0.0 and that there is no buoyancy forcing, but makes the model faster
                                ! by eliminating subroutine calls.
DT = 6000.0                     !   [s]
                                ! The (baroclinic) dynamics time step.  The time-step that is actually used will
                                ! be an integer fraction of the forcing time-step (DT_FORCING in ocean-only mode
                                ! or the coupling timestep in coupled mode.)
DT_THERM = 36000.0               !   [s] default = 1200.0
                                ! The thermodynamic and tracer advection time step. Ideally DT_THERM should be
                                ! an integer multiple of DT and less than the forcing or coupling time-step,
                                ! unless THERMO_SPANS_COUPLING is true, in which case DT_THERM can be an integer
                                ! multiple of the coupling timestep.  By default DT_THERM is set to DT.
DTBT_RESET_PERIOD = -1.0        !   [s] default = 2400.0
                                ! The period between recalculations of DTBT (if DTBT <= 0). If DTBT_RESET_PERIOD
                                ! is negative, DTBT is set based only on information available at
                                ! initialization.  If 0, DTBT will be set every dynamics time step. The default
                                ! is set by DT_THERM.  This is only used if SPLIT is true.
BULK_RI_ML = 0.05               !   [nondim]
                                ! The efficiency with which mean kinetic energy released
                                ! by mechanically forced entrainment of the mixed layer
                                ! is converted to turbulent kinetic energy.


! === module MOM_fixed_initialization ===
INPUTDIR = "INPUT"              ! default = "."
                                ! The directory in which input files are found.

! === module MOM_grid_init ===
GRID_CONFIG = "spherical"       !
                                ! A character string that determines the method for defining the horizontal
                                ! grid.  Current options are:
                                !     mosaic - read the grid from a mosaic (supergrid)
                                !              file set by GRID_FILE.
                                !     cartesian - use a (flat) Cartesian grid.
                                !     spherical - use a simple spherical grid.
                                !     mercator - use a Mercator spherical grid.
SOUTHLAT = -70.0                !   [degrees]
                                ! The southern latitude of the domain.
LENLAT = 140.0                  !   [degrees]
                                ! The latitudinal length of the domain.
LENLON = 80.0                   !   [degrees]
                                ! The longitudinal length of the domain.
TOPO_CONFIG = "file"            !
                                ! This specifies how bathymetry is specified:
TOPO_FILE="topo_file_test1.nc"  !     file - read bathymetric information from the file
                                !       specified by (TOPO_FILE).
TOPO_VARNAME = "z"              !
                                !     flat - flat bottom set to MAXIMUM_DEPTH.
                                !     bowl - an analytically specified bowl-shaped basin
                                !       ranging between MAXIMUM_DEPTH and MINIMUM_DEPTH.
                                !     spoon - a similar shape to 'bowl', but with an vertical
                                !       wall at the southern face.
                                !     halfpipe - a zonally uniform channel with a half-sine
                                !       profile in the meridional direction.
                                !     bbuilder - build topography from list of functions.
                                !     benchmark - use the benchmark test case topography.
                                !     Neverworld - use the Neverworld test case topography.
                                !     DOME - use a slope and channel configuration for the
                                !       DOME sill-overflow test case.
                                !     ISOMIP - use a slope and channel configuration for the
                                !       ISOMIP test case.
                                !     DOME2D - use a shelf and slope configuration for the
                                !       DOME2D gravity current/overflow test case.
                                !     Kelvin - flat but with rotated land mask.
                                !     seamount - Gaussian bump for spontaneous motion test case.
                                !     dumbbell - Sloshing channel with reservoirs on both ends.
                                !     shelfwave - exponential slope for shelfwave test case.
                                !     Phillips - ACC-like idealized topography used in the Phillips config.
                                !     dense - Denmark Strait-like dense water formation and overflow.
                                !     USER - call a user modified routine.
MINIMUM_DEPTH = 0.0             !   [m] default = 0.0
                                ! The minimum depth of the ocean.
MAXIMUM_DEPTH = 4000.0          !   [m]
                                ! The maximum depth of the ocean.
!MASKING_DEPTH = 1.0             ! [m] default = -9999.0
				! The depth below which to mask points as land points, for which all fluxes are 
				! zeroed out. MASKING_DEPTH is ignored if negative.

! === module MOM_verticalGrid ===
! Parameters providing information about the vertical grid.
NK = 32                         !   [nondim]
                                ! The number of model layers.

! === module MOM_tracer_flow_control ===

! === module MOM_EOS ===
EQN_OF_STATE = "LINEAR"         ! default = "WRIGHT"
                                ! EQN_OF_STATE determines which ocean equation of state should be used.
                                ! Currently, the valid choices are "LINEAR", "UNESCO", "JACKETT_MCD", "WRIGHT",
                                ! "WRIGHT_REDUCED", "WRIGHT_FULL", "NEMO", "ROQUET_RHO", "ROQUET_SPV" and
                                ! "TEOS10".  This is only used if USE_EOS is true.

! === module MOM_coord_initialization ===
COORD_CONFIG = "linear"         ! default = "none"
                                ! This specifies how layers are to be defined:
                                !     ALE or none - used to avoid defining layers in ALE mode
                                !     file - read coordinate information from the file
                                !       specified by (COORD_FILE).
                                !     BFB - Custom coords for buoyancy-forced basin case
                                !       based on SST_S, T_BOT and DRHO_DT.
                                !     linear - linear based on interfaces not layers
                                !     layer_ref - linear based on layer densities
                                !     ts_ref - use reference temperature and salinity
                                !     ts_range - use range of temperature and salinity
                                !       (T_REF and S_REF) to determine surface density
                                !       and GINT calculate internal densities.
                                !     gprime - use reference density (RHO_0) for surface
                                !       density and GINT calculate internal densities.
                                !     ts_profile - use temperature and salinity profiles
                                !       (read from COORD_FILE) to set layer densities.
                                !     USER - call a user modified routine.
REGRIDDING_COORDINATE_MODE = "Z*" ! default = "LAYER"
                                ! Coordinate mode for vertical regridding. Choose among the following
                                ! possibilities:  LAYER - Isopycnal or stacked shallow water layers
                                !  ZSTAR, Z* - stretched geopotential z*
                                !  SIGMA_SHELF_ZSTAR - stretched geopotential z* ignoring shelf
                                !  SIGMA - terrain following coordinates
                                !  RHO   - continuous isopycnal
                                !  HYCOM1 - HyCOM-like hybrid coordinate
                                !  SLIGHT - stretched coordinates above continuous isopycnal
                   		!
ALE_COORDINATE_CONFIG = "FILE:./INPUT/vgrid_32_6.nc,dz"
				!
!ALE_RESOLUTION = 500.0, 500.0, 500.0      !   [m]
                                ! The distribution of vertical resolution for the target
                                ! grid used for Eulerian-like coordinates. For example,
                                ! in z-coordinate mode, the parameter is a list of level
                                ! thicknesses (in m). In sigma-coordinate mode, the list
                                ! is of non-dimensional fractions of the water column.
! === module MOM_state_initialization ===
TS_CONFIG = "linear"            !
                                ! A string that determines how the initial tempertures and salinities are
ADJUST_THICKNESS = True                                ! specified for a new run:
                                !     file - read velocities from the file specified
                                !       by (TS_FILE).
                                !     fit - find the temperatures that are consistent with
                                !       the layer densities and salinity S_REF.
                                !     TS_profile - use temperature and salinity profiles
                                !       (read from TS_FILE) to set layer densities.
                                !     benchmark - use the benchmark test case T & S.
                                !     linear - linear in logical layer space.
                                !     DOME2D - 2D DOME initialization.
                                !     ISOMIP - ISOMIP initialization.
                                !     adjustment2d - 2d lock exchange T/S ICs.
                                !     sloshing - sloshing mode T/S ICs.
                                !     seamount - no motion test with seamount ICs.
                                !     dumbbell - sloshing channel ICs.
                                !     rossby_front - a mixed layer front in thermal wind balance.
                                !     SCM_CVMix_tests - used in the SCM CVMix tests.
                                !     USER - call a user modified routine.
T_TOP = 25.920                  !   [degC]
                                ! Initial temperature of the top surface.
T_RANGE = 20.0                  !   [degC]
                                ! Initial temperature difference (top-bottom).
S_TOP = 35.0                    !   [PSU]
                                ! Initial salinity of the top surface.
S_RANGE = 0.0                   !   [PSU]
                                ! Initial salinity difference (top-bottom).
! === module MOM_diag_mediator ===

! === module MOM_lateral_mixing_coeffs ===

! === module MOM_set_visc ===
LINEAR_DRAG = True              !   [Boolean] default = False
                                ! If LINEAR_DRAG and BOTTOMDRAGLAW are defined the drag law is
                                ! cdrag*DRAG_BG_VEL*u.
HBBL = 10.0                     !   [m]
                                ! The thickness of a bottom boundary layer with a viscosity of KVBBL if
                                ! BOTTOMDRAGLAW is not defined, or the thickness over which near-bottom
                                ! velocities are averaged for the drag law if BOTTOMDRAGLAW is defined but
                                ! LINEAR_DRAG is not.
DRAG_BG_VEL = 0.1               !   [m s-1] default = 0.0
                                ! DRAG_BG_VEL is either the assumed bottom velocity (with LINEAR_DRAG) or an
                                ! unresolved  velocity that is combined with the resolved velocity to estimate
                                ! the velocity magnitude.  DRAG_BG_VEL is only used when BOTTOMDRAGLAW is
                                ! defined.
BBL_THICK_MIN = 0.1             !   [m] default = 0.0
                                ! The minimum bottom boundary layer thickness that can be used with
                                ! BOTTOMDRAGLAW. This might be Kv/(cdrag*drag_bg_vel) to give Kv as the minimum
                                ! near-bottom viscosity.
KV = 1.0E-04                    !   [m2 s-1]
                                ! The background kinematic viscosity in the interior. The molecular value, ~1e-6
                                ! m2 s-1, may be used.
! === module MOM_bkgnd_mixing ===
! Adding static vertical background mixing coefficients
KD = 5.0E-6                        !   [m2 s-1] default = 0.0
                                ! The background diapycnal diffusivity of density in the interior. Zero or the
                                ! molecular value, ~1e-7 m2 s-1, may be used.

! === module MOM_CVMix_KPP ===
! This is the MOM wrapper to CVMix:KPP
! See http://cvmix.github.io/
!USE_KPP = True                  !   [Boolean] default = False
                                ! If true, turns on the [CVMix] KPP scheme of Large et al., 1994, to calculate
                                ! diffusivities and non-local transport in the OBL.

! === module MOM_CVMix_conv ===
! Parameterization of enhanced mixing due to convection via CVMix
USE_CVMix_CONVECTION = True     !   [Boolean] default = False
                                ! If true, turns on the enhanced mixing due to convection via CVMix. This scheme
                                ! increases diapycnal diffs./viscs. at statically unstable interfaces. Relevant
                                ! parameters are contained in the CVMix_CONVECTION% parameter block.
CVMix_CONVECTION%		!
				!
KD_CONV = 10.0			! Diffusivity used in convective regime. Corresponding viscosity 
				! (KV_CONV) will be set to KD_CONV * PRANDTL_CONV.
%CVMix_CONVECTION		! units = m2/s, default = 1.00


! === module MOM_thickness_diffuse ===
KHTH = 500.0                      !   [m2 s-1] default = 0.0
                                ! The background horizontal thickness diffusivity.

! === module MOM_dynamics_split_RK2 ===

! === module MOM_continuity ===

! === module MOM_continuity_PPM ===
ETA_TOLERANCE = 1.0E-12         !   [m] default = 1.0E-10
                                ! The tolerance for the differences between the barotropic and baroclinic
                                ! estimates of the sea surface height due to the fluxes through each face.  The
                                ! total tolerance for SSH is 4 times this value.  The default is
                                ! 0.5*NK*ANGSTROM, and this should not be set less than about
                                ! 10^-15*MAXIMUM_DEPTH.

! === module MOM_CoriolisAdv ===
BOUND_CORIOLIS = True           !   [Boolean] default = False
                                ! If true, the Coriolis terms at u-points are bounded by the four estimates of
                                ! (f+rv)v from the four neighboring v-points, and similarly at v-points.  This
                                ! option would have no effect on the SADOURNY Coriolis scheme if it were
                                ! possible to use centered difference thickness fluxes.

! === module MOM_PressureForce ===

! === module MOM_PressureForce_AFV ===

! === module MOM_hor_visc ===
LAPLACIAN = True                !   [Boolean] default = False
                                ! If true, use a Laplacian horizontal viscosity.
KH = 2.0E+05                    !   [m2 s-1] default = 0.0
                                ! The background Laplacian horizontal viscosity.
KH_VEL_SCALE = 0.003            !   [m s-1] default = 0.0
                                ! The velocity scale which is multiplied by the grid spacing to calculate the
                                ! Laplacian viscosity. The final viscosity is the largest of this scaled
                                ! viscosity, the Smagorinsky and Leith viscosities, and KH.
SMAGORINSKY_KH = True           !   [Boolean] default = False
                                ! If true, use a Smagorinsky nonlinear eddy viscosity.
SMAG_LAP_CONST = 0.15           !   [nondim] default = 0.0
                                ! The nondimensional Laplacian Smagorinsky constant, often 0.15.
BIHARMONIC = False              !   [Boolean] default = True
                                ! If true, use a biharmonic horizontal viscosity. BIHARMONIC may be used with
                                ! LAPLACIAN.

! === module MOM_mixed_layer_restrat ===
!MIXEDLAYER_RESTRAT = True       !   [Boolean] default = False
                                ! If true, a density-gradient dependent re-stratifying flow is imposed in the
                                ! mixed layer. Can be used in ALE mode without restriction but in layer mode can
                                ! only be used if BULKMIXEDLAYER is true.

!FOX_KEMPER_ML_RESTRAT_COEF = 60.0 !   [nondim] default = 0.0
                                ! A nondimensional coefficient that is proportional to the ratio of the
                                ! deformation radius to the dominant lengthscale of the submesoscale mixed layer
                                ! instabilities, times the minimum of the ratio of the mesoscale eddy kinetic
                                ! energy to the large-scale geostrophic kinetic energy or 1 plus the square of
                                ! the grid spacing over the deformation radius, as detailed by Fox-Kemper et al.
                                ! (2010)

! === module MOM_vert_friction ===
DIRECT_STRESS = True            !   [Boolean] default = False
                                ! If true, the wind stress is distributed over the topmost HMIX_STRESS of fluid
                                ! (like in HYCOM), and KVML may be set to a very small value.
HMIX_STRESS = 20.0		!
HARMONIC_VISC = True            !   [Boolean] default = False
                                ! If true, use the harmonic mean thicknesses for calculating the vertical
                                ! viscosity.
HMIX_FIXED = 20.0               !   [m]
                                ! The prescribed depth over which the near-surface viscosity and diffusivity are
                                ! elevated when the bulk mixed layer is not used.
KVML = 0.01                     !   [m2 s-1] default = 1.0E-04
                                ! The kinematic viscosity in the mixed layer.  A typical value is ~1e-2 m2 s-1.
                                ! KVML is not used if BULKMIXEDLAYER is true.  The default is set by KV.
MAXVEL = 6.0                    !   [m s-1] default = 3.0E+08
                                ! The maximum velocity allowed before the velocity components are truncated.

! === module MOM_barotropic ===
BOUND_BT_CORRECTION = False      !   [Boolean] default = False
                                ! If true, the corrective pseudo mass-fluxes into the barotropic solver are
                                ! limited to values that require less than maxCFL_BT_cont to be accommodated.
BT_PROJECT_VELOCITY = False      !   [Boolean] default = False
                                ! If true, step the barotropic velocity first and project out the velocity
                                ! tendency by 1+BEBT when calculating the transport.  The default (false) is to
                                ! use a predictor continuity step to find the pressure field, and then to do a
                                ! corrector continuity step using a weighted average of the old and new
                                ! velocities, with weights of (1-BEBT) and BEBT.
BEBT = 0.2                      !   [nondim] default = 0.1
                                ! BEBT determines whether the barotropic time stepping uses the forward-backward
                                ! time-stepping scheme or a backward Euler scheme. BEBT is valid in the range
                                ! from 0 (for a forward-backward treatment of nonrotating gravity waves) to 1
                                ! (for a backward Euler treatment). In practice, BEBT must be greater than about
                                ! 0.05.
DTBT = -0.9                     !   [s or nondim] default = -0.98
                                ! The barotropic time step, in s. DTBT is only used with the split explicit time
                                ! stepping. To set the time step automatically based the maximum stable value
                                ! use 0, or a negative value gives the fraction of the stable value. Setting
                                ! DTBT to 0 is the same as setting it to -0.98. The value of DTBT that will
                                ! actually be used is an integer fraction of DT, rounding down.
!DT_BT_FILTER = 0.0		! A time scale for filtering BT variables,
				! in s if positive, or as a fraction of DT if negative
				!
! === module MOM_diagnostics ===

! === module MOM_diabatic_driver ===
! The following parameters are used for diabatic processes.

! === module MOM_tracer_advect ===

! === module MOM_tracer_hor_diff ===

! === module MOM_sum_output ===
DATE_STAMPED_STDOUT = False     !   [Boolean] default = True
                                ! If true, use dates (not times) in messages to stdout
READ_DEPTH_LIST = True          !   [Boolean] default = False
                                ! Read the depth list from a file if it exists or create that file otherwise.
DEPTH_LIST_MIN_INC = 1.0E-06    !   [m] default = 1.0E-10
                                ! The minimum increment between the depths of the entries in the depth-list
                                ! file.
REQUIRE_DEPTH_LIST_CHECKSUMS = False !   [Boolean] default = True
                                ! Require that matching checksums be in Depth_list.nc when reading the file.
UPDATE_DEPTH_LIST_CHECKSUMS = True !   [Boolean] default = False
                                ! Automatically update the Depth_list.nc file if the checksums are missing or do
                                ! not match current values. 

! === module MOM_surface_forcing ===
VARIABLE_WINDS = False          !   [Boolean] default = True
                                ! If true, the winds vary in time after the initialization.
VARIABLE_BUOYFORCE = True       !   [Boolean] default = True
                                ! If true, the buoyancy forcing varies in time after the initialization of the
                                ! model.
WIND_CONFIG = "file"            ! default = "zero"
                                ! The character string that indicates how wind forcing is specified. Valid
WIND_FILE = "wind_sample_nov_10.nc"                                ! options include (file), (2gyre), (1gyre), (gyres), (zero), and (USER).
                                !
WINDSTRESS_X_VAR = "taux"       !
                                !
WINDSTRESS_Y_VAR = "tauy"       !
                                !
BUOY_CONFIG = "MESO"            ! default = "zero"
				! The character string that indicates how buoyancy forcing 
				! is specified. Valid options include (file), (zero),
				! (linear), (USER), (BFB) and (NONE).
				!
RESTOREBUOY = True		!   [Boolean] default = False
				! If true, the buoyancy fluxes drive the model back toward some specified
				! surface state with a rate given by FLUXCONST.
FLUXCONST = 10.0  		!   [m day -1]
				! The constant that relates the restoring surface fluxes
				! to the relative surface anomalies (akin to a piston
				! velocity). Note the non-MKS units. 

FLUXCONST_T = 0.0

FLUXCONST_S = 0.0

! === module MESO_surface_forcing ===
SSTRESTORE_FILE = "11-27_NaN_SST.nc" ! The file with the SST towawrd which to restore in variable TEMP.
                                !
!SST_RESTORE_VAR = "temp"        ! SST in _2... surf_temp in _1
				!
SALINITYRESTORE_FILE = "11-27_NaN_SAL.nc" ! The file with the surface salinity toward which to restore in the variable
				! given by SSS_RESTORE_VAR.
!SSS_RESTORE_VAR = "temp"       ! default = "SST" <-- possibly...
                                !
SENSIBLEHEAT_FILE = "11-27_zero_Heat.nc"	!
                                !
PRECIP_FILE = "11-29_PmE_all_zeros.nc"		!
                                !
SHORTWAVE_FILE = "11-27_zero_NET_SOL.nc"  	!

! === module MOM_main (MOM_driver) ===
DT_FORCING = 36000.0             !   [s] default = 1200.0
                                ! The time step for changing forcing, coupling with other components, or
                                ! potentially writing certain diagnostics. The default value is given by DT.
DAYMAX = 817180                  !   [days]
                                ! The final time of the whole simulation, in units of TIMEUNIT seconds.  This
                                ! also sets the potential end time of the present run segment if the end time is
                                ! not set via ocean_solo_nml in input.nml.
RESTART_CONTROL = 3             ! default = 1
                                ! An integer whose bits encode which restart files are written. Add 2 (bit 1)
                                ! for a time-stamped file, and odd (bit 0) for a non-time-stamped file. A
                                ! non-time-stamped restart file is saved at the end of the run segment for any
                                ! non-negative value.
RESTINT = 36500.0                 !   [days] default = 0.0
                                ! The interval between saves of the restart file in units of TIMEUNIT.  Use 0
                                ! (the default) to not save incremental restart files at all.
